
  -OEChem-04162017213D

 18 17  0     0  0  0  0  0  0999 V2000
    0.4474   -0.8852   -1.2543 C   0  0  0  0  0  0  0  0  0  0  0  0
    0.4055   -0.0068    0.0003 C   0  0  0  0  0  0  0  0  0  0  0  0
    1.5943    0.9593   -0.0000 C   0  0  0  0  0  0  0  0  0  0  0  0
    0.4487   -0.8855    1.2549 C   0  0  0  0  0  0  0  0  0  0  0  0
   -0.8814    0.8203    0.0003 C   0  0  0  0  0  0  0  0  0  0  0  0
   -1.9976   -0.0517   -0.0009 O   0  0  0  0  0  0  0  0  0  0  0  0
    1.3598   -1.4931   -1.2704 H   0  0  0  0  0  0  0  0  0  0  0  0
    0.4360   -0.2714   -2.1639 H   0  0  0  0  0  0  0  0  0  0  0  0
   -0.4168   -1.5555   -1.2868 H   0  0  0  0  0  0  0  0  0  0  0  0
    1.5848    1.6034   -0.8884 H   0  0  0  0  0  0  0  0  0  0  0  0
    1.5857    1.6042    0.8878 H   0  0  0  0  0  0  0  0  0  0  0  0
    2.5401    0.4050   -0.0002 H   0  0  0  0  0  0  0  0  0  0  0  0
    1.3598   -1.4962    1.2686 H   0  0  0  0  0  0  0  0  0  0  0  0
    0.4415   -0.2708    2.1640 H   0  0  0  0  0  0  0  0  0  0  0  0
   -0.4176   -1.5527    1.2902 H   0  0  0  0  0  0  0  0  0  0  0  0
   -0.8928    1.4704    0.8913 H   0  0  0  0  0  0  0  0  0  0  0  0
   -0.8908    1.4724   -0.8896 H   0  0  0  0  0  0  0  0  0  0  0  0
   -2.7969    0.4864   -0.0019 H   0  0  0  0  0  0  0  0  0  0  0  0
  1  8  1  0  0  0  0
  1  9  1  0  0  0  0
  1  7  1  0  0  0  0
  1  2  1  0  0  0  0
  5 17  1  0  0  0  0
  3 10  1  0  0  0  0
  6 18  1  0  0  0  0
  5  6  1  0  0  0  0
  3 12  1  0  0  0  0
  2  3  1  0  0  0  0
  3 11  1  0  0  0  0
  2  5  1  0  0  0  0
  2  4  1  0  0  0  0
  5 16  1  0  0  0  0
  4 13  1  0  0  0  0
  4 15  1  0  0  0  0
  4 14  1  0  0  0  0
M  END
$$$$
