
  -OEChem-04162017273D

 12 11  0     0  0  0  0  0  0999 V2000
    2.6688    0.4318   -0.0993 N   0  0  0  0  0  0  0  0  0  0  0  0
    1.6010   -0.4527    0.0232 N   0  0  0  0  0  0  0  0  0  0  0  0
    0.4381    0.0531   -0.0355 C   0  0  0  0  0  0  0  0  0  0  0  0
   -0.6738   -0.7766   -0.0034 N   0  0  0  0  0  0  0  0  0  0  0  0
   -1.9644   -0.3124    0.0084 C   0  0  0  0  0  0  0  0  0  0  0  0
   -2.2438    0.9286    0.0149 N   0  0  0  0  0  0  0  0  0  0  0  0
    3.4591    0.0257    0.3853 H   0  0  0  0  0  0  0  0  0  0  0  0
    2.4695    1.3460    0.3082 H   0  0  0  0  0  0  0  0  0  0  0  0
    0.2093    1.1179   -0.1226 H   0  0  0  0  0  0  0  0  0  0  0  0
   -0.4965   -1.7720    0.0095 H   0  0  0  0  0  0  0  0  0  0  0  0
   -2.6962   -1.1301    0.0018 H   0  0  0  0  0  0  0  0  0  0  0  0
   -3.2514    1.0537    0.0134 H   0  0  0  0  0  0  0  0  0  0  0  0
  1  2  1  0  0  0  0
  1  7  1  0  0  0  0
  1  8  1  0  0  0  0
  2  3  2  0  0  0  0
  3  4  1  0  0  0  0
  3  9  1  0  0  0  0
  4  5  1  0  0  0  0
  4 10  1  0  0  0  0
  5  6  2  0  0  0  0
  5 11  1  0  0  0  0
  6 12  1  0  0  0  0
M  END
$$$$
