
  -OEChem-04162017273D

 11 10  0     0  0  0  0  0  0999 V2000
    2.8757    0.1124    0.0016 O   0  0  0  0  0  0  0  0  0  0  0  0
    1.6560   -0.5294    0.0009 N   0  0  0  0  0  0  0  0  0  0  0  0
    0.6259    0.2156   -0.0009 C   0  0  0  0  0  0  0  0  0  0  0  0
   -0.6414   -0.3373   -0.0044 N   0  0  0  0  0  0  0  0  0  0  0  0
   -1.8068    0.4061   -0.0011 C   0  0  0  0  0  0  0  0  0  0  0  0
   -3.0062   -0.0079    0.0034 N   0  0  0  0  0  0  0  0  0  0  0  0
    2.7308    1.0759    0.0018 H   0  0  0  0  0  0  0  0  0  0  0  0
    0.6577    1.3104   -0.0020 H   0  0  0  0  0  0  0  0  0  0  0  0
   -0.6913   -1.3474   -0.0041 H   0  0  0  0  0  0  0  0  0  0  0  0
   -1.6241    1.4835   -0.0039 H   0  0  0  0  0  0  0  0  0  0  0  0
   -3.0523   -1.0301    0.0077 H   0  0  0  0  0  0  0  0  0  0  0  0
  1  2  1  0  0  0  0
  1  7  1  0  0  0  0
  2  3  2  0  0  0  0
  3  4  1  0  0  0  0
  3  8  1  0  0  0  0
  4  5  1  0  0  0  0
  4  9  1  0  0  0  0
  5  6  2  0  0  0  0
  5 10  1  0  0  0  0
  6 11  1  0  0  0  0
M  END
$$$$
