
  -OEChem-04162017283D

 12 11  0     0  0  0  0  0  0999 V2000
    2.6969   -0.3977   -0.0005 C   0  0  0  0  0  0  0  0  0  0  0  0
    1.5515    0.5023   -0.0012 N   0  0  0  0  0  0  0  0  0  0  0  0
    0.4104   -0.0367    0.0014 C   0  0  0  0  0  0  0  0  0  0  0  0
   -0.7340    0.7572    0.0020 N   0  0  0  0  0  0  0  0  0  0  0  0
   -2.0059    0.2458   -0.0018 C   0  0  0  0  0  0  0  0  0  0  0  0
   -2.2739   -0.9349    0.0003 O   0  0  0  0  0  0  0  0  0  0  0  0
    2.7062   -1.0425    0.8861 H   0  0  0  0  0  0  0  0  0  0  0  0
    2.7114   -1.0396   -0.8905 H   0  0  0  0  0  0  0  0  0  0  0  0
    3.6188    0.1898    0.0014 H   0  0  0  0  0  0  0  0  0  0  0  0
    0.1901   -1.1083    0.0065 H   0  0  0  0  0  0  0  0  0  0  0  0
   -0.5873    1.7571    0.0014 H   0  0  0  0  0  0  0  0  0  0  0  0
   -2.7754    1.0390   -0.0086 H   0  0  0  0  0  0  0  0  0  0  0  0
  1  2  1  0  0  0  0
  1  7  1  0  0  0  0
  1  8  1  0  0  0  0
  1  9  1  0  0  0  0
  2  3  2  0  0  0  0
  3  4  1  0  0  0  0
  3 10  1  0  0  0  0
  4  5  1  0  0  0  0
  4 11  1  0  0  0  0
  5  6  2  0  0  0  0
  5 12  1  0  0  0  0
M  END
$$$$
