
  -OEChem-04162017293D

 11 10  0     0  0  0  0  0  0999 V2000
    2.8520    0.1557   -0.0937 N   0  0  0  0  0  0  0  0  0  0  0  0
    1.6242   -0.4836   -0.0085 N   0  0  0  0  0  0  0  0  0  0  0  0
    0.5891    0.2482   -0.0173 C   0  0  0  0  0  0  0  0  0  0  0  0
   -0.6789   -0.3303    0.0176 N   0  0  0  0  0  0  0  0  0  0  0  0
   -1.8541    0.3703   -0.0028 C   0  0  0  0  0  0  0  0  0  0  0  0
   -2.9474   -0.1439    0.0078 O   0  0  0  0  0  0  0  0  0  0  0  0
    2.8723    1.0366    0.4230 H   0  0  0  0  0  0  0  0  0  0  0  0
    3.5426   -0.4703    0.2993 H   0  0  0  0  0  0  0  0  0  0  0  0
    0.5976    1.3451   -0.0617 H   0  0  0  0  0  0  0  0  0  0  0  0
   -0.7301   -1.3394    0.0240 H   0  0  0  0  0  0  0  0  0  0  0  0
   -1.6924    1.4665   -0.0324 H   0  0  0  0  0  0  0  0  0  0  0  0
  1  2  1  0  0  0  0
  1  7  1  0  0  0  0
  1  8  1  0  0  0  0
  2  3  2  0  0  0  0
  3  4  1  0  0  0  0
  3  9  1  0  0  0  0
  4  5  1  0  0  0  0
  4 10  1  0  0  0  0
  5  6  2  0  0  0  0
  5 11  1  0  0  0  0
M  END
$$$$
