
  -OEChem-04162017293D

 13 12  0     0  0  0  0  0  0999 V2000
    2.5446   -0.3373   -0.0068 C   0  0  0  0  0  0  0  0  0  0  0  0
    1.2634    0.4667    0.0123 C   0  0  0  0  0  0  0  0  0  0  0  0
    0.1764   -0.4687    0.0011 O   0  0  0  0  0  0  0  0  0  0  0  0
   -1.0517    0.0945   -0.0017 C   0  0  0  0  0  0  0  0  0  0  0  0
   -2.0122   -0.8695    0.0053 N   0  0  0  0  0  0  0  0  0  0  0  0
   -1.2618    1.2895   -0.0080 O   0  0  0  0  0  0  0  0  0  0  0  0
    2.6066   -0.9809    0.8750 H   0  0  0  0  0  0  0  0  0  0  0  0
    2.5884   -0.9711   -0.8976 H   0  0  0  0  0  0  0  0  0  0  0  0
    3.4075    0.3342   -0.0102 H   0  0  0  0  0  0  0  0  0  0  0  0
    1.1797    1.1278   -0.8579 H   0  0  0  0  0  0  0  0  0  0  0  0
    1.1905    1.0954    0.9049 H   0  0  0  0  0  0  0  0  0  0  0  0
   -2.9767   -0.5800   -0.0072 H   0  0  0  0  0  0  0  0  0  0  0  0
   -1.7705   -1.8464   -0.0160 H   0  0  0  0  0  0  0  0  0  0  0  0
  1  8  1  0  0  0  0
  2 10  1  0  0  0  0
  5 13  1  0  0  0  0
  1  9  1  0  0  0  0
  4  6  2  0  0  0  0
  5 12  1  0  0  0  0
  1  2  1  0  0  0  0
  1  7  1  0  0  0  0
  3  4  1  0  0  0  0
  4  5  1  0  0  0  0
  2  3  1  0  0  0  0
  2 11  1  0  0  0  0
M  END
$$$$
