
  -OEChem-04162017303D

 14 13  0     0  0  0  0  0  0999 V2000
    2.3273   -0.8820   -0.0000 C   0  0  0  0  0  0  0  0  0  0  0  0
    1.8328    0.5418   -0.0047 C   0  0  0  0  0  0  0  0  0  0  0  0
    0.5458    0.8681   -0.0026 C   0  0  0  0  0  0  0  0  0  0  0  0
   -0.4263   -0.0956    0.0106 O   0  0  0  0  0  0  0  0  0  0  0  0
   -1.7293    0.3137    0.0068 C   0  0  0  0  0  0  0  0  0  0  0  0
   -2.7289   -0.5564   -0.0098 C   0  0  0  0  0  0  0  0  0  0  0  0
    3.4216   -0.9215    0.0074 H   0  0  0  0  0  0  0  0  0  0  0  0
    1.9628   -1.4233    0.8794 H   0  0  0  0  0  0  0  0  0  0  0  0
    1.9756   -1.4305   -0.8822 H   0  0  0  0  0  0  0  0  0  0  0  0
    2.5515    1.3568   -0.0225 H   0  0  0  0  0  0  0  0  0  0  0  0
    0.1889    1.8967   -0.0199 H   0  0  0  0  0  0  0  0  0  0  0  0
   -1.8707    1.3968    0.0208 H   0  0  0  0  0  0  0  0  0  0  0  0
   -2.5443   -1.6258   -0.0184 H   0  0  0  0  0  0  0  0  0  0  0  0
   -3.7529   -0.1991   -0.0093 H   0  0  0  0  0  0  0  0  0  0  0  0
  1  9  1  0  0  0  0
  2 10  1  0  0  0  0
  3 11  1  0  0  0  0
  6 13  1  0  0  0  0
  6 14  1  0  0  0  0
  5  6  2  0  0  0  0
  2  3  2  0  0  0  0
  1  2  1  0  0  0  0
  3  4  1  0  0  0  0
  1  7  1  0  0  0  0
  1  8  1  0  0  0  0
  4  5  1  0  0  0  0
  5 12  1  0  0  0  0
M  END
$$$$
