
  -OEChem-04162017323D

 16 15  0     0  0  0  0  0  0999 V2000
    1.5419   -1.2318   -0.1622 C   0  0  0  0  0  0  0  0  0  0  0  0
    0.9997    0.1528    0.0762 C   0  0  0  0  0  0  0  0  0  0  0  0
    1.6564    1.2457   -0.3064 C   0  0  0  0  0  0  0  0  0  0  0  0
   -0.3339    0.2427    0.7917 C   0  0  0  0  0  0  0  0  0  0  0  0
   -1.4581   -0.4402    0.0554 C   0  0  0  0  0  0  0  0  0  0  0  0
   -2.5301    0.1831   -0.4214 C   0  0  0  0  0  0  0  0  0  0  0  0
    0.8932   -1.8020   -0.8388 H   0  0  0  0  0  0  0  0  0  0  0  0
    1.6014   -1.7975    0.7769 H   0  0  0  0  0  0  0  0  0  0  0  0
    2.5413   -1.1977   -0.6053 H   0  0  0  0  0  0  0  0  0  0  0  0
    1.2555    2.2418   -0.1349 H   0  0  0  0  0  0  0  0  0  0  0  0
    2.6196    1.1849   -0.8083 H   0  0  0  0  0  0  0  0  0  0  0  0
   -0.2291   -0.2246    1.7835 H   0  0  0  0  0  0  0  0  0  0  0  0
   -0.5933    1.2944    0.9598 H   0  0  0  0  0  0  0  0  0  0  0  0
   -1.3642   -1.5183   -0.0826 H   0  0  0  0  0  0  0  0  0  0  0  0
   -3.3166   -0.3517   -0.9469 H   0  0  0  0  0  0  0  0  0  0  0  0
   -2.6619    1.2571   -0.3044 H   0  0  0  0  0  0  0  0  0  0  0  0
  6 15  1  0  0  0  0
  1  7  1  0  0  0  0
  3 11  1  0  0  0  0
  1  9  1  0  0  0  0
  6 16  1  0  0  0  0
  5  6  2  0  0  0  0
  3 10  1  0  0  0  0
  2  3  2  0  0  0  0
  1  2  1  0  0  0  0
  1  8  1  0  0  0  0
  5 14  1  0  0  0  0
  4  5  1  0  0  0  0
  2  4  1  0  0  0  0
  4 13  1  0  0  0  0
  4 12  1  0  0  0  0
M  END
$$$$
