
  -OEChem-04162017213D

 18 17  0     0  0  0  0  0  0999 V2000
   -0.2480    1.5258    0.0007 C   0  0  0  0  0  0  0  0  0  0  0  0
   -0.3537    0.0002   -0.0003 C   0  0  0  0  0  0  0  0  0  0  0  0
   -1.1184   -0.4583    1.2529 C   0  0  0  0  0  0  0  0  0  0  0  0
   -1.1159   -0.4585   -1.2529 C   0  0  0  0  0  0  0  0  0  0  0  0
    1.0034   -0.6713    0.0008 C   0  0  0  0  0  0  0  0  0  0  0  0
    2.1953   -0.0822   -0.0015 C   0  0  0  0  0  0  0  0  0  0  0  0
   -1.2486    1.9725    0.0022 H   0  0  0  0  0  0  0  0  0  0  0  0
    0.2816    1.8916   -0.8870 H   0  0  0  0  0  0  0  0  0  0  0  0
    0.2828    1.8869    0.8899 H   0  0  0  0  0  0  0  0  0  0  0  0
   -1.2192   -1.5496    1.2793 H   0  0  0  0  0  0  0  0  0  0  0  0
   -2.1277   -0.0285    1.2663 H   0  0  0  0  0  0  0  0  0  0  0  0
   -0.5976   -0.1479    2.1660 H   0  0  0  0  0  0  0  0  0  0  0  0
   -0.5965   -0.1437   -2.1651 H   0  0  0  0  0  0  0  0  0  0  0  0
   -1.2109   -1.5510   -1.2775 H   0  0  0  0  0  0  0  0  0  0  0  0
   -2.1271   -0.0331   -1.2670 H   0  0  0  0  0  0  0  0  0  0  0  0
    0.9617   -1.7636    0.0057 H   0  0  0  0  0  0  0  0  0  0  0  0
    2.3116    0.9994   -0.0086 H   0  0  0  0  0  0  0  0  0  0  0  0
    3.1121   -0.6663   -0.0008 H   0  0  0  0  0  0  0  0  0  0  0  0
  4 13  1  0  0  0  0
  4 14  1  0  0  0  0
  4 15  1  0  0  0  0
  2  4  1  0  0  0  0
  1  8  1  0  0  0  0
  6 17  1  0  0  0  0
  6 18  1  0  0  0  0
  5  6  2  0  0  0  0
  1  2  1  0  0  0  0
  2  5  1  0  0  0  0
  2  3  1  0  0  0  0
  1  7  1  0  0  0  0
  1  9  1  0  0  0  0
  5 16  1  0  0  0  0
  3 11  1  0  0  0  0
  3 10  1  0  0  0  0
  3 12  1  0  0  0  0
M  END
$$$$
