
  -OEChem-04162017333D

 14 13  0     0  0  0  0  0  0999 V2000
    2.8179   -0.5109   -0.0149 C   0  0  0  0  0  0  0  0  0  0  0  0
    1.5448    0.2235   -0.3149 C   0  0  0  0  0  0  0  0  0  0  0  0
    0.4322    0.1393    0.4076 C   0  0  0  0  0  0  0  0  0  0  0  0
   -0.8375    0.8926    0.0955 C   0  0  0  0  0  0  0  0  0  0  0  0
   -1.9982    0.0032   -0.0439 C   0  0  0  0  0  0  0  0  0  0  0  0
   -2.9407   -0.7390   -0.1452 C   0  0  0  0  0  0  0  0  0  0  0  0
    2.7162   -1.1323    0.8806 H   0  0  0  0  0  0  0  0  0  0  0  0
    3.6499    0.1861    0.1449 H   0  0  0  0  0  0  0  0  0  0  0  0
    3.1003   -1.1629   -0.8503 H   0  0  0  0  0  0  0  0  0  0  0  0
    1.5517    0.8664   -1.1968 H   0  0  0  0  0  0  0  0  0  0  0  0
    0.4000   -0.5056    1.2860 H   0  0  0  0  0  0  0  0  0  0  0  0
   -0.7095    1.4713   -0.8274 H   0  0  0  0  0  0  0  0  0  0  0  0
   -1.0491    1.6173    0.8942 H   0  0  0  0  0  0  0  0  0  0  0  0
   -3.7750   -1.3987   -0.2398 H   0  0  0  0  0  0  0  0  0  0  0  0
  2 10  1  0  0  0  0
  1  9  1  0  0  0  0
  4 12  1  0  0  0  0
  1  2  1  0  0  0  0
  2  3  2  0  0  0  0
  6 14  1  0  0  0  0
  5  6  3  0  0  0  0
  4  5  1  0  0  0  0
  1  8  1  0  0  0  0
  1  7  1  0  0  0  0
  3  4  1  0  0  0  0
  4 13  1  0  0  0  0
  3 11  1  0  0  0  0
M  END
$$$$
