
  -OEChem-04162017343D

 11 10  0     0  0  0  0  0  0999 V2000
    2.2177   -0.5864    0.0032 O   0  0  0  0  0  0  0  0  0  0  0  0
    1.7293    0.7130    0.0007 N   0  0  0  0  0  0  0  0  0  0  0  0
    0.4588    0.7167   -0.0027 C   0  0  0  0  0  0  0  0  0  0  0  0
   -0.4042   -0.5200   -0.0059 C   0  0  0  0  0  0  0  0  0  0  0  0
   -1.8329   -0.2033   -0.0024 C   0  0  0  0  0  0  0  0  0  0  0  0
   -3.0026    0.0743    0.0066 C   0  0  0  0  0  0  0  0  0  0  0  0
    3.1749   -0.4636    0.0208 H   0  0  0  0  0  0  0  0  0  0  0  0
   -0.0044    1.7007   -0.0130 H   0  0  0  0  0  0  0  0  0  0  0  0
   -0.1396   -1.1344    0.8637 H   0  0  0  0  0  0  0  0  0  0  0  0
   -0.1478   -1.1279   -0.8847 H   0  0  0  0  0  0  0  0  0  0  0  0
   -4.0438    0.3201    0.0048 H   0  0  0  0  0  0  0  0  0  0  0  0
  1  2  1  0  0  0  0
  1  7  1  0  0  0  0
  2  3  2  0  0  0  0
  3  4  1  0  0  0  0
  3  8  1  0  0  0  0
  4  5  1  0  0  0  0
  4  9  1  0  0  0  0
  4 10  1  0  0  0  0
  5  6  3  0  0  0  0
  6 11  1  0  0  0  0
M  END
$$$$
