
  -OEChem-04162017343D

 16 15  0     0  0  0  0  0  0999 V2000
   -3.0700    0.1707   -0.0054 C   0  0  0  0  0  0  0  0  0  0  0  0
   -1.5875    0.5348   -0.0017 C   0  0  0  0  0  0  0  0  0  0  0  0
   -0.6879   -0.7085    0.0082 C   0  0  0  0  0  0  0  0  0  0  0  0
    0.7416   -0.3795    0.0019 C   0  0  0  0  0  0  0  0  0  0  0  0
    1.9065   -0.0726    0.0018 C   0  0  0  0  0  0  0  0  0  0  0  0
    3.3258    0.2880   -0.0035 C   0  0  0  0  0  0  0  0  0  0  0  0
   -3.7006    1.0658   -0.0038 H   0  0  0  0  0  0  0  0  0  0  0  0
   -3.3282   -0.4221   -0.8917 H   0  0  0  0  0  0  0  0  0  0  0  0
   -3.3302   -0.4247    0.8787 H   0  0  0  0  0  0  0  0  0  0  0  0
   -1.3446    1.1433   -0.8805 H   0  0  0  0  0  0  0  0  0  0  0  0
   -1.3478    1.1513    0.8733 H   0  0  0  0  0  0  0  0  0  0  0  0
   -0.9190   -1.3186    0.8919 H   0  0  0  0  0  0  0  0  0  0  0  0
   -0.9232   -1.3320   -0.8639 H   0  0  0  0  0  0  0  0  0  0  0  0
    3.8492   -0.1537    0.8532 H   0  0  0  0  0  0  0  0  0  0  0  0
    3.8198   -0.0694   -0.9161 H   0  0  0  0  0  0  0  0  0  0  0  0
    3.4574    1.3742    0.0436 H   0  0  0  0  0  0  0  0  0  0  0  0
  6 15  1  0  0  0  0
  1  8  1  0  0  0  0
  2 10  1  0  0  0  0
  3 13  1  0  0  0  0
  1  7  1  0  0  0  0
  1  2  1  0  0  0  0
  1  9  1  0  0  0  0
  5  6  1  0  0  0  0
  6 16  1  0  0  0  0
  6 14  1  0  0  0  0
  2  3  1  0  0  0  0
  2 11  1  0  0  0  0
  4  5  3  0  0  0  0
  3  4  1  0  0  0  0
  3 12  1  0  0  0  0
M  END
$$$$
