
  -OEChem-04162017373D

 15 14  0     0  0  0  0  0  0999 V2000
   -2.9664   -0.2077    0.0176 C   0  0  0  0  0  0  0  0  0  0  0  0
   -1.5562   -0.5082   -0.1476 N   0  0  0  0  0  0  0  0  0  0  0  0
   -0.7272    0.6782    0.0210 C   0  0  0  0  0  0  0  0  0  0  0  0
    0.7026    0.3472   -0.0021 C   0  0  0  0  0  0  0  0  0  0  0  0
    1.8742    0.0655    0.0046 C   0  0  0  0  0  0  0  0  0  0  0  0
    3.2981   -0.2746   -0.0021 C   0  0  0  0  0  0  0  0  0  0  0  0
   -3.2934    0.4540   -0.7928 H   0  0  0  0  0  0  0  0  0  0  0  0
   -3.2142    0.2889    0.9739 H   0  0  0  0  0  0  0  0  0  0  0  0
   -3.5481   -1.1315   -0.0535 H   0  0  0  0  0  0  0  0  0  0  0  0
   -1.2681   -1.2055    0.5319 H   0  0  0  0  0  0  0  0  0  0  0  0
   -0.9530    1.2261    0.9561 H   0  0  0  0  0  0  0  0  0  0  0  0
   -0.9551    1.3710   -0.8004 H   0  0  0  0  0  0  0  0  0  0  0  0
    3.8694    0.4527   -0.5879 H   0  0  0  0  0  0  0  0  0  0  0  0
    3.4602   -1.2633   -0.4435 H   0  0  0  0  0  0  0  0  0  0  0  0
    3.7067   -0.2863    1.0136 H   0  0  0  0  0  0  0  0  0  0  0  0
  3 12  1  0  0  0  0
  1  7  1  0  0  0  0
  6 13  1  0  0  0  0
  6 14  1  0  0  0  0
  1  2  1  0  0  0  0
  2  3  1  0  0  0  0
  2 10  1  0  0  0  0
  1  9  1  0  0  0  0
  4  5  3  0  0  0  0
  3  4  1  0  0  0  0
  5  6  1  0  0  0  0
  6 15  1  0  0  0  0
  1  8  1  0  0  0  0
  3 11  1  0  0  0  0
M  END
$$$$
