
  -OEChem-04162017383D

 14 13  0     0  0  0  0  0  0999 V2000
   -2.8965   -0.2305   -0.0026 C   0  0  0  0  0  0  0  0  0  0  0  0
   -1.5227   -0.5226    0.0047 O   0  0  0  0  0  0  0  0  0  0  0  0
   -0.7491    0.6530    0.0004 C   0  0  0  0  0  0  0  0  0  0  0  0
    0.6764    0.3168    0.0003 C   0  0  0  0  0  0  0  0  0  0  0  0
    1.8524    0.0581   -0.0023 C   0  0  0  0  0  0  0  0  0  0  0  0
    3.2803   -0.2651   -0.0003 C   0  0  0  0  0  0  0  0  0  0  0  0
   -3.4302   -1.1830   -0.0057 H   0  0  0  0  0  0  0  0  0  0  0  0
   -3.1848    0.3440   -0.8991 H   0  0  0  0  0  0  0  0  0  0  0  0
   -3.1941    0.3469    0.8881 H   0  0  0  0  0  0  0  0  0  0  0  0
   -0.9867    1.2730    0.8824 H   0  0  0  0  0  0  0  0  0  0  0  0
   -0.9869    1.2644   -0.8884 H   0  0  0  0  0  0  0  0  0  0  0  0
    3.7804    0.1561   -0.8778 H   0  0  0  0  0  0  0  0  0  0  0  0
    3.7726    0.1317    0.8933 H   0  0  0  0  0  0  0  0  0  0  0  0
    3.4290   -1.3489   -0.0136 H   0  0  0  0  0  0  0  0  0  0  0  0
  1  8  1  0  0  0  0
  3 11  1  0  0  0  0
  6 12  1  0  0  0  0
  6 14  1  0  0  0  0
  1  7  1  0  0  0  0
  1  2  1  0  0  0  0
  1  9  1  0  0  0  0
  5  6  1  0  0  0  0
  4  5  3  0  0  0  0
  6 13  1  0  0  0  0
  3  4  1  0  0  0  0
  2  3  1  0  0  0  0
  3 10  1  0  0  0  0
M  END
$$$$
