
  -OEChem-04162017403D

 12 11  0     0  0  0  0  0  0999 V2000
    2.9398   -0.4916   -0.0033 C   0  0  0  0  0  0  0  0  0  0  0  0
    1.5751    0.0347    0.0040 C   0  0  0  0  0  0  0  0  0  0  0  0
    0.4506    0.4668    0.0012 C   0  0  0  0  0  0  0  0  0  0  0  0
   -0.9228    0.9967    0.0041 C   0  0  0  0  0  0  0  0  0  0  0  0
   -1.9511   -0.0516   -0.0016 C   0  0  0  0  0  0  0  0  0  0  0  0
   -2.7976   -0.9069   -0.0039 C   0  0  0  0  0  0  0  0  0  0  0  0
    3.5128   -0.1073    0.8478 H   0  0  0  0  0  0  0  0  0  0  0  0
    3.4650   -0.2052   -0.9198 H   0  0  0  0  0  0  0  0  0  0  0  0
    2.9352   -1.5873    0.0608 H   0  0  0  0  0  0  0  0  0  0  0  0
   -1.0644    1.6452   -0.8695 H   0  0  0  0  0  0  0  0  0  0  0  0
   -1.0676    1.6320    0.8844 H   0  0  0  0  0  0  0  0  0  0  0  0
   -3.5413   -1.6741   -0.0103 H   0  0  0  0  0  0  0  0  0  0  0  0
  1  2  1  0  0  0  0
  1  7  1  0  0  0  0
  1  8  1  0  0  0  0
  1  9  1  0  0  0  0
  2  3  3  0  0  0  0
  3  4  1  0  0  0  0
  4  5  1  0  0  0  0
  4 10  1  0  0  0  0
  4 11  1  0  0  0  0
  5  6  3  0  0  0  0
  6 12  1  0  0  0  0
M  END
$$$$
