
  -OEChem-04162017233D

 13 12  0     0  0  0  0  0  0999 V2000
    2.8238   -0.4408    0.0012 C   0  0  0  0  0  0  0  0  0  0  0  0
    1.5969    0.4364   -0.0016 C   0  0  0  0  0  0  0  0  0  0  0  0
    0.3551   -0.0403   -0.0009 C   0  0  0  0  0  0  0  0  0  0  0  0
   -0.7970    0.7571    0.0007 N   0  0  0  0  0  0  0  0  0  0  0  0
   -2.0588    0.2334    0.0011 C   0  0  0  0  0  0  0  0  0  0  0  0
   -2.3167   -0.9524   -0.0008 O   0  0  0  0  0  0  0  0  0  0  0  0
    2.8634   -1.0806    0.8896 H   0  0  0  0  0  0  0  0  0  0  0  0
    2.8612   -1.0919   -0.8801 H   0  0  0  0  0  0  0  0  0  0  0  0
    3.7348    0.1654   -0.0059 H   0  0  0  0  0  0  0  0  0  0  0  0
    1.7475    1.5170   -0.0004 H   0  0  0  0  0  0  0  0  0  0  0  0
    0.1261   -1.1027   -0.0028 H   0  0  0  0  0  0  0  0  0  0  0  0
   -0.6902    1.7616    0.0062 H   0  0  0  0  0  0  0  0  0  0  0  0
   -2.8359    1.0198   -0.0004 H   0  0  0  0  0  0  0  0  0  0  0  0
  1  8  1  0  0  0  0
  1  9  1  0  0  0  0
  3 11  1  0  0  0  0
  2  3  2  0  0  0  0
  2 10  1  0  0  0  0
  1  2  1  0  0  0  0
  3  4  1  0  0  0  0
  5  6  2  0  0  0  0
  5 13  1  0  0  0  0
  4  5  1  0  0  0  0
  4 12  1  0  0  0  0
  1  7  1  0  0  0  0
M  END
$$$$
