
  -OEChem-04162017243D

 14 13  0     0  0  0  0  0  0999 V2000
    2.4327   -0.4055    0.1785 C   0  0  0  0  0  0  0  0  0  0  0  0
    1.6470    0.7866   -0.0926 N   0  0  0  0  0  0  0  0  0  0  0  0
    0.3877    0.6522   -0.1777 C   0  0  0  0  0  0  0  0  0  0  0  0
   -0.3403   -0.5216   -0.0912 N   0  0  0  0  0  0  0  0  0  0  0  0
   -1.7330   -0.5973   -0.0814 C   0  0  0  0  0  0  0  0  0  0  0  0
   -2.5916    0.3837    0.2031 C   0  0  0  0  0  0  0  0  0  0  0  0
    2.0575   -0.9810    1.0397 H   0  0  0  0  0  0  0  0  0  0  0  0
    2.4632   -1.0842   -0.6892 H   0  0  0  0  0  0  0  0  0  0  0  0
    3.4649   -0.1092    0.3931 H   0  0  0  0  0  0  0  0  0  0  0  0
   -0.2282    1.5363   -0.3461 H   0  0  0  0  0  0  0  0  0  0  0  0
    0.1736   -1.3913   -0.1100 H   0  0  0  0  0  0  0  0  0  0  0  0
   -2.1054   -1.5843   -0.3417 H   0  0  0  0  0  0  0  0  0  0  0  0
   -2.2880    1.3812    0.4993 H   0  0  0  0  0  0  0  0  0  0  0  0
   -3.6533    0.1877    0.1411 H   0  0  0  0  0  0  0  0  0  0  0  0
  1  8  1  0  0  0  0
  3 10  1  0  0  0  0
  5 12  1  0  0  0  0
  2  3  2  0  0  0  0
  3  4  1  0  0  0  0
  4 11  1  0  0  0  0
  1  2  1  0  0  0  0
  4  5  1  0  0  0  0
  5  6  2  0  0  0  0
  6 14  1  0  0  0  0
  1  9  1  0  0  0  0
  1  7  1  0  0  0  0
  6 13  1  0  0  0  0
M  END
$$$$
